<?xml version="1.0" encoding="UTF-8"?>

<!-- generated on 2018年01月31日 (週三) 19時54分48秒 by Netedit Version 0.30.0
<?xml version="1.0" encoding="UTF-8"?>

<configuration xmlns:xsi="http://www.w3.org/2001/XMLSchema-instance" xsi:noNamespaceSchemaLocation="http://sumo.dlr.de/xsd/netconvertConfiguration.xsd">

    <input>
        <sumo-net-file value="kaoshiung.net.xml"/>
    </input>

    <output>
        <output-file value="kaoshiung.net.xml"/>
    </output>

    <processing>
        <no-turnarounds value="true"/>
        <offset.disable-normalization value="true"/>
        <lefthand value="false"/>
        <junctions.corner-detail value="0"/>
        <rectangular-lane-cut value="false"/>
    </processing>

</configuration>
-->

<net version="0.27" xmlns:xsi="http://www.w3.org/2001/XMLSchema-instance" xsi:noNamespaceSchemaLocation="http://sumo.dlr.de/xsd/net_file.xsd">

    <location netOffset="-221870.31,-2497466.47" convBoundary="0.00,0.00,6225.61,14789.66" origBoundary="120.293247,22.562212,120.355918,22.694852" projParameter="+proj=utm +zone=51 +ellps=WGS84 +datum=WGS84 +units=m +no_defs"/>

    <type id="highway.bridleway" priority="1" numLanes="1" speed="2.78" allow="pedestrian" oneway="1" width="2.00"/>
    <type id="highway.bus_guideway" priority="1" numLanes="1" speed="8.33" allow="bus" oneway="1"/>
    <type id="highway.cycleway" priority="1" numLanes="1" speed="5.56" allow="bicycle" oneway="0" width="1.00"/>
    <type id="highway.footway" priority="1" numLanes="1" speed="2.78" allow="pedestrian" oneway="1" width="2.00"/>
    <type id="highway.ford" priority="1" numLanes="1" speed="2.78" allow="army" oneway="0"/>
    <type id="highway.living_street" priority="3" numLanes="1" speed="2.78" disallow="tram rail_urban rail rail_electric ship" oneway="0"/>
    <type id="highway.motorway" priority="13" numLanes="2" speed="44.44" allow="private emergency authority army vip passenger hov taxi bus coach delivery truck trailer motorcycle evehicle custom1 custom2" oneway="1"/>
    <type id="highway.motorway_link" priority="12" numLanes="1" speed="22.22" allow="private emergency authority army vip passenger hov taxi bus coach delivery truck trailer motorcycle evehicle custom1 custom2" oneway="1"/>
    <type id="highway.path" priority="1" numLanes="1" speed="2.78" allow="bicycle pedestrian" oneway="1" width="2.00"/>
    <type id="highway.pedestrian" priority="1" numLanes="1" speed="2.78" allow="pedestrian" oneway="1" width="2.00"/>
    <type id="highway.primary" priority="9" numLanes="2" speed="27.78" disallow="tram rail_urban rail rail_electric ship" oneway="0"/>
    <type id="highway.primary_link" priority="8" numLanes="1" speed="22.22" disallow="tram rail_urban rail rail_electric ship" oneway="0"/>
    <type id="highway.raceway" priority="14" numLanes="2" speed="83.33" allow="vip" oneway="0"/>
    <type id="highway.residential" priority="4" numLanes="1" speed="13.89" disallow="tram rail_urban rail rail_electric ship" oneway="0"/>
    <type id="highway.secondary" priority="7" numLanes="2" speed="27.78" disallow="tram rail_urban rail rail_electric ship" oneway="0"/>
    <type id="highway.secondary_link" priority="6" numLanes="1" speed="22.22" disallow="tram rail_urban rail rail_electric ship" oneway="0"/>
    <type id="highway.service" priority="2" numLanes="1" speed="5.56" allow="delivery bicycle pedestrian" oneway="0"/>
    <type id="highway.services" priority="1" numLanes="1" speed="8.33" disallow="tram rail_urban rail rail_electric ship" oneway="0"/>
    <type id="highway.stairs" priority="1" numLanes="1" speed="1.39" allow="pedestrian" oneway="1" width="2.00"/>
    <type id="highway.step" priority="1" numLanes="1" speed="1.39" allow="pedestrian" oneway="1" width="2.00"/>
    <type id="highway.steps" priority="1" numLanes="1" speed="1.39" allow="pedestrian" oneway="1" width="2.00"/>
    <type id="highway.tertiary" priority="6" numLanes="1" speed="22.22" disallow="tram rail_urban rail rail_electric ship" oneway="0"/>
    <type id="highway.tertiary_link" priority="5" numLanes="1" speed="22.22" disallow="tram rail_urban rail rail_electric ship" oneway="0"/>
    <type id="highway.track" priority="1" numLanes="1" speed="5.56" disallow="tram rail_urban rail rail_electric ship" oneway="0"/>
    <type id="highway.trunk" priority="11" numLanes="2" speed="27.78" disallow="tram rail_urban rail rail_electric bicycle pedestrian ship" oneway="0"/>
    <type id="highway.trunk_link" priority="10" numLanes="1" speed="22.22" disallow="tram rail_urban rail rail_electric bicycle pedestrian ship" oneway="0"/>
    <type id="highway.unclassified" priority="5" numLanes="1" speed="13.89" disallow="tram rail_urban rail rail_electric ship" oneway="0"/>
    <type id="highway.unsurfaced" priority="1" numLanes="1" speed="8.33" disallow="tram rail_urban rail rail_electric ship" oneway="0"/>
    <type id="railway.light_rail" priority="15" numLanes="1" speed="27.78" allow="rail_urban" oneway="1"/>
    <type id="railway.preserved" priority="15" numLanes="1" speed="27.78" allow="rail" oneway="1"/>
    <type id="railway.rail" priority="15" numLanes="1" speed="83.33" allow="rail rail_electric" oneway="1"/>
    <type id="railway.subway" priority="15" numLanes="1" speed="27.78" allow="rail_urban" oneway="1"/>
    <type id="railway.tram" priority="15" numLanes="1" speed="13.89" allow="tram" oneway="1"/>

    <edge id=":1031440904_0" function="internal">
        <lane id=":1031440904_0_0" index="0" disallow="tram rail_urban rail rail_electric ship" speed="13.89" length="5.08" shape="1490.64,11503.78 1490.13,11502.47 1489.33,11501.66 1488.23,11501.37 1486.84,11501.58"/>
    </edge>
    <edge id=":1031440904_1" function="internal">
        <lane id=":1031440904_1_0" index="0" disallow="tram rail_urban rail rail_electric ship" speed="13.89" length="10.29" shape="1490.64,11503.78 1490.36,11500.90 1490.96,11498.58 1492.46,11496.81 1494.84,11495.59"/>
    </edge>
    <edge id=":1031440904_2" function="internal">
        <lane id=":1031440904_2_0" index="0" allow="delivery bicycle pedestrian" speed="5.56" length="4.82" shape="1490.64,11503.78 1491.17,11502.39 1491.88,11501.80 1492.77,11502.02 1493.85,11503.04"/>
    </edge>
    <edge id=":1031440904_3" function="internal">
        <lane id=":1031440904_3_0" index="0" allow="delivery bicycle pedestrian" speed="13.89" length="5.32" shape="1495.88,11498.72 1494.70,11499.34 1493.97,11500.27 1493.69,11501.50 1493.85,11503.04"/>
    </edge>
    <edge id=":1031440904_4" function="internal">
        <lane id=":1031440904_4_0" index="0" disallow="tram rail_urban rail rail_electric ship" speed="22.22" length="9.48" shape="1495.88,11498.72 1486.84,11501.58"/>
    </edge>
    <edge id=":1031440904_5" function="internal">
        <lane id=":1031440904_5_0" index="0" disallow="tram rail_urban rail rail_electric ship" speed="22.22" length="2.41" shape="1495.88,11498.72 1494.45,11498.33 1493.79,11497.68"/>
    </edge>
    <edge id=":1031440904_9" function="internal">
        <lane id=":1031440904_9_0" index="0" speed="22.22" length="2.41" shape="1493.79,11497.68 1493.93,11496.76 1494.84,11495.59"/>
    </edge>
    <edge id=":1031440904_6" function="internal">
        <lane id=":1031440904_6_0" index="0" disallow="tram rail_urban rail rail_electric ship" speed="22.22" length="9.39" shape="1485.89,11498.42 1494.84,11495.59"/>
    </edge>
    <edge id=":1031440904_7" function="internal">
        <lane id=":1031440904_7_0" index="0" allow="delivery bicycle pedestrian" speed="13.89" length="5.33" shape="1485.89,11498.42 1488.81,11497.98 1491.11,11498.60"/>
    </edge>
    <edge id=":1031440904_8" function="internal">
        <lane id=":1031440904_8_0" index="0" disallow="tram rail_urban rail rail_electric ship" speed="22.22" length="2.41" shape="1485.89,11498.42 1487.31,11498.85 1487.95,11499.52"/>
    </edge>
    <edge id=":1031440904_10" function="internal">
        <lane id=":1031440904_10_0" index="0" speed="13.89" length="5.33" shape="1491.11,11498.60 1492.79,11500.29 1493.85,11503.04"/>
    </edge>
    <edge id=":1031440904_11" function="internal">
        <lane id=":1031440904_11_0" index="0" speed="22.22" length="2.41" shape="1487.95,11499.52 1487.79,11500.43 1486.84,11501.58"/>
    </edge>
    <edge id=":1031440919_0" function="internal">
        <lane id=":1031440919_0_0" index="0" allow="delivery bicycle pedestrian" speed="5.56" length="4.82" shape="1397.77,11729.39 1396.31,11729.11 1395.61,11728.51 1395.67,11727.58 1396.49,11726.35"/>
    </edge>
    <edge id=":1031440958_0" function="internal">
        <lane id=":1031440958_0_0" index="0" allow="delivery bicycle pedestrian" speed="9.73" length="5.03" shape="1112.86,11687.08 1112.63,11685.73 1112.01,11684.78 1111.01,11684.23 1109.64,11684.08"/>
    </edge>
    <edge id=":1031440958_1" function="internal">
        <lane id=":1031440958_1_0" index="0" disallow="tram rail_urban rail rail_electric ship" speed="13.89" length="9.53" shape="1112.86,11687.08 1112.50,11677.56"/>
    </edge>
    <edge id=":1031440958_2" function="internal">
        <lane id=":1031440958_2_0" index="0" disallow="tram rail_urban rail rail_electric ship" speed="13.89" length="2.41" shape="1112.86,11687.08 1113.65,11685.82 1114.46,11685.38"/>
    </edge>
    <edge id=":1031440958_9" function="internal">
        <lane id=":1031440958_9_0" index="0" speed="13.89" length="2.41" shape="1114.46,11685.38 1115.30,11685.77 1116.16,11686.98"/>
    </edge>
    <edge id=":1031440958_3" function="internal">
        <lane id=":1031440958_3_0" index="0" disallow="tram rail_urban rail rail_electric ship" speed="13.89" length="9.59" shape="1115.79,11677.40 1116.16,11686.98"/>
    </edge>
    <edge id=":1031440958_4" function="internal">
        <lane id=":1031440958_4_0" index="0" allow="delivery bicycle pedestrian" speed="9.73" length="5.34" shape="1115.79,11677.40 1115.52,11680.24 1114.41,11682.30 1114.28,11682.38"/>
    </edge>
    <edge id=":1031440958_5" function="internal">
        <lane id=":1031440958_5_0" index="0" disallow="tram rail_urban rail rail_electric ship" speed="13.89" length="2.41" shape="1115.79,11677.40 1115.03,11678.68 1114.22,11679.13"/>
    </edge>
    <edge id=":1031440958_10" function="internal">
        <lane id=":1031440958_10_0" index="0" speed="9.73" length="5.05" shape="1114.28,11682.38 1112.44,11683.58 1109.64,11684.08"/>
    </edge>
    <edge id=":1031440958_11" function="internal">
        <lane id=":1031440958_11_0" index="0" speed="13.89" length="2.41" shape="1114.22,11679.13 1113.38,11678.76 1112.50,11677.56"/>
    </edge>
    <edge id=":1031440958_6" function="internal">
        <lane id=":1031440958_6_0" index="0" disallow="tram rail_urban rail rail_electric ship" speed="9.73" length="5.02" shape="1109.52,11680.78 1110.88,11680.54 1111.83,11679.92 1112.36,11678.93 1112.50,11677.56"/>
    </edge>
    <edge id=":1031440958_7" function="internal">
        <lane id=":1031440958_7_0" index="0" disallow="tram rail_urban rail rail_electric ship" speed="9.73" length="10.37" shape="1109.52,11680.78 1112.36,11681.09 1114.41,11682.22 1115.67,11684.19 1116.16,11686.98"/>
    </edge>
    <edge id=":1031440958_8" function="internal">
        <lane id=":1031440958_8_0" index="0" allow="delivery bicycle pedestrian" speed="5.56" length="4.82" shape="1109.52,11680.78 1110.79,11681.57 1111.23,11682.38 1110.84,11683.22 1109.64,11684.08"/>
    </edge>
    <edge id=":1031440966_0" function="internal">
        <lane id=":1031440966_0_0" index="0" disallow="tram rail_urban rail rail_electric ship" speed="13.89" length="0.17" shape="1657.56,11779.18 1657.40,11779.21"/>
    </edge>
    <edge id=":1031440966_1" function="internal">
        <lane id=":1031440966_1_0" index="0" disallow="tram rail_urban rail rail_electric ship" speed="13.89" length="2.41" shape="1657.56,11779.18 1656.17,11778.64 1655.59,11777.93"/>
    </edge>
    <edge id=":1031440966_4" function="internal">
        <lane id=":1031440966_4_0" index="0" speed="13.89" length="2.41" shape="1655.59,11777.93 1655.81,11777.03 1656.84,11775.95"/>
    </edge>
    <edge id=":1031440966_2" function="internal">
        <lane id=":1031440966_2_0" index="0" disallow="tram rail_urban rail rail_electric ship" speed="13.89" length="0.29" shape="1656.56,11776.02 1656.84,11775.95"/>
    </edge>
    <edge id=":1031440966_3" function="internal">
        <lane id=":1031440966_3_0" index="0" disallow="tram rail_urban rail rail_electric ship" speed="13.89" length="2.41" shape="1656.56,11776.02 1657.97,11776.51 1658.57,11777.20"/>
    </edge>
    <edge id=":1031440966_5" function="internal">
        <lane id=":1031440966_5_0" index="0" speed="13.89" length="2.41" shape="1658.57,11777.20 1658.39,11778.10 1657.40,11779.21"/>
    </edge>
    <edge id=":1031440982_0" function="internal">
        <lane id=":1031440982_0_0" index="0" disallow="tram rail_urban rail rail_electric ship" speed="13.89" length="4.33" shape="1119.25,11672.82 1118.20,11673.20 1117.33,11673.78 1116.64,11674.57 1116.14,11675.57"/>
    </edge>
    <edge id=":1031440982_1" function="internal">
        <lane id=":1031440982_1_0" index="0" disallow="tram rail_urban rail rail_electric ship" speed="13.89" length="2.26" shape="1119.25,11672.82 1117.85,11672.31 1117.36,11671.72"/>
    </edge>
    <edge id=":1031440982_6" function="internal">
        <lane id=":1031440982_6_0" index="0" speed="13.89" length="2.56" shape="1117.36,11671.72 1117.26,11671.60 1117.47,11670.70 1118.48,11669.61"/>
    </edge>
    <edge id=":1031440982_2" function="internal">
        <lane id=":1031440982_2_0" index="0" disallow="tram rail_urban rail rail_electric ship" speed="9.73" length="6.98" shape="1111.80,11669.70 1113.60,11670.50 1115.00,11670.58 1116.47,11670.19 1118.48,11669.61"/>
    </edge>
    <edge id=":1031440982_3" function="internal">
        <lane id=":1031440982_3_0" index="0" disallow="tram rail_urban rail rail_electric ship" speed="9.73" length="7.87" shape="1111.80,11669.70 1114.08,11671.23 1115.57,11672.72 1116.25,11674.17 1116.14,11675.57"/>
    </edge>
    <edge id=":1031440982_4" function="internal">
        <lane id=":1031440982_4_0" index="0" disallow="tram rail_urban rail rail_electric ship" speed="13.89" length="7.57" shape="1113.05,11674.42 1113.92,11672.68 1115.12,11671.29 1116.64,11670.27 1118.48,11669.61"/>
    </edge>
    <edge id=":1031440982_5" function="internal">
        <lane id=":1031440982_5_0" index="0" disallow="tram rail_urban rail rail_electric ship" speed="13.89" length="2.66" shape="1113.05,11674.42 1114.25,11673.55 1115.17,11673.45 1115.34,11673.63"/>
    </edge>
    <edge id=":1031440982_7" function="internal">
        <lane id=":1031440982_7_0" index="0" speed="13.89" length="2.16" shape="1115.34,11673.63 1115.80,11674.13 1116.14,11675.57"/>
    </edge>
    <edge id=":1031441015_0" function="internal">
        <lane id=":1031441015_0_0" index="0" allow="delivery bicycle pedestrian" speed="9.73" length="7.86" shape="1076.80,11183.09 1074.66,11182.82 1073.12,11181.94 1072.17,11180.44 1071.81,11178.32"/>
    </edge>
    <edge id=":1031441015_1" function="internal">
        <lane id=":1031441015_1_0" index="0" disallow="tram rail_urban rail rail_electric ship" speed="13.89" length="4.82" shape="1076.80,11183.09 1075.55,11182.29 1075.12,11181.47 1075.51,11180.64 1076.74,11179.79"/>
    </edge>
    <edge id=":1031441015_2" function="internal">
        <lane id=":1031441015_2_0" index="0" disallow="tram rail_urban rail rail_electric ship" speed="9.73" length="2.57" shape="1075.10,11178.23 1075.22,11178.92 1075.53,11179.41 1076.04,11179.70 1076.74,11179.79"/>
    </edge>
    <edge id=":1031441015_3" function="internal">
        <lane id=":1031441015_3_0" index="0" allow="delivery bicycle pedestrian" speed="5.56" length="4.82" shape="1075.10,11178.23 1074.31,11179.49 1073.50,11179.92 1072.66,11179.53 1071.81,11178.32"/>
    </edge>
    <edge id=":1031441038_0" function="internal">
        <lane id=":1031441038_0_0" index="0" disallow="tram rail_urban rail rail_electric ship" speed="13.89" length="5.13" shape="1391.61,11812.86 1390.99,11811.57 1390.13,11810.84 1389.00,11810.65 1387.63,11811.02"/>
    </edge>
    <edge id=":1031441038_1" function="internal">
        <lane id=":1031441038_1_0" index="0" disallow="tram rail_urban rail rail_electric ship" speed="13.89" length="10.20" shape="1391.61,11812.86 1388.58,11803.12"/>
    </edge>
    <edge id=":1031441038_2" function="internal">
        <lane id=":1031441038_2_0" index="0" disallow="tram rail_urban rail rail_electric ship" speed="13.89" length="5.46" shape="1391.61,11812.86 1391.13,11809.95 1391.66,11807.50"/>
    </edge>
    <edge id=":1031441038_3" function="internal">
        <lane id=":1031441038_3_0" index="0" disallow="tram rail_urban rail rail_electric ship" speed="13.89" length="2.41" shape="1391.61,11812.86 1392.03,11811.43 1392.69,11810.80"/>
    </edge>
    <edge id=":1031441038_16" function="internal">
        <lane id=":1031441038_16_0" index="0" speed="13.89" length="5.46" shape="1391.66,11807.50 1393.18,11805.51 1395.71,11803.99"/>
    </edge>
    <edge id=":1031441038_17" function="internal">
        <lane id=":1031441038_17_0" index="0" speed="13.89" length="2.41" shape="1392.69,11810.80 1393.60,11810.95 1394.76,11811.88"/>
    </edge>
    <edge id=":1031441038_4" function="internal">
        <lane id=":1031441038_4_0" index="0" disallow="tram rail_urban rail rail_electric ship" speed="13.89" length="5.97" shape="1397.00,11807.03 1395.62,11807.86 1394.78,11808.95 1394.50,11810.29 1394.76,11811.88"/>
    </edge>
    <edge id=":1031441038_5" function="internal">
        <lane id=":1031441038_5_0" index="0" disallow="tram rail_urban rail rail_electric ship" speed="13.89" length="10.19" shape="1397.00,11807.03 1387.63,11811.02"/>
    </edge>
    <edge id=":1031441038_6" function="internal">
        <lane id=":1031441038_6_0" index="0" disallow="tram rail_urban rail rail_electric ship" speed="13.89" length="10.84" shape="1397.00,11807.03 1394.09,11807.80 1391.71,11807.40 1389.88,11805.85 1388.58,11803.12"/>
    </edge>
    <edge id=":1031441038_7" function="internal">
        <lane id=":1031441038_7_0" index="0" disallow="tram rail_urban rail rail_electric ship" speed="13.89" length="4.82" shape="1397.00,11807.03 1395.54,11806.75 1394.84,11806.16 1394.90,11805.23 1395.71,11803.99"/>
    </edge>
    <edge id=":1031441038_8" function="internal">
        <lane id=":1031441038_8_0" index="0" disallow="tram rail_urban rail rail_electric ship" speed="13.89" length="5.12" shape="1391.74,11802.15 1392.35,11803.43 1393.22,11804.17 1394.34,11804.36 1395.71,11803.99"/>
    </edge>
    <edge id=":1031441038_9" function="internal">
        <lane id=":1031441038_9_0" index="0" disallow="tram rail_urban rail rail_electric ship" speed="13.89" length="10.19" shape="1391.74,11802.15 1394.76,11811.88"/>
    </edge>
    <edge id=":1031441038_10" function="internal">
        <lane id=":1031441038_10_0" index="0" disallow="tram rail_urban rail rail_electric ship" speed="13.89" length="5.46" shape="1391.74,11802.15 1392.21,11805.06 1391.68,11807.51"/>
    </edge>
    <edge id=":1031441038_11" function="internal">
        <lane id=":1031441038_11_0" index="0" disallow="tram rail_urban rail rail_electric ship" speed="13.89" length="2.41" shape="1391.74,11802.15 1391.32,11803.57 1390.65,11804.21"/>
    </edge>
    <edge id=":1031441038_18" function="internal">
        <lane id=":1031441038_18_0" index="0" speed="13.89" length="5.46" shape="1391.68,11807.51 1390.16,11809.50 1387.63,11811.02"/>
    </edge>
    <edge id=":1031441038_19" function="internal">
        <lane id=":1031441038_19_0" index="0" speed="13.89" length="2.41" shape="1390.65,11804.21 1389.74,11804.06 1388.58,11803.12"/>
    </edge>
    <edge id=":1031441038_12" function="internal">
        <lane id=":1031441038_12_0" index="0" disallow="tram rail_urban rail rail_electric ship" speed="13.89" length="5.98" shape="1386.33,11807.99 1387.72,11807.15 1388.56,11806.06 1388.84,11804.72 1388.58,11803.12"/>
    </edge>
    <edge id=":1031441038_13" function="internal">
        <lane id=":1031441038_13_0" index="0" disallow="tram rail_urban rail rail_electric ship" speed="13.89" length="10.20" shape="1386.33,11807.99 1395.71,11803.99"/>
    </edge>
    <edge id=":1031441038_14" function="internal">
        <lane id=":1031441038_14_0" index="0" disallow="tram rail_urban rail rail_electric ship" speed="13.89" length="10.85" shape="1386.33,11807.99 1389.25,11807.21 1391.62,11807.60 1393.46,11809.16 1394.76,11811.88"/>
    </edge>
    <edge id=":1031441038_15" function="internal">
        <lane id=":1031441038_15_0" index="0" disallow="tram rail_urban rail rail_electric ship" speed="13.89" length="4.82" shape="1386.33,11807.99 1387.79,11808.26 1388.50,11808.85 1388.44,11809.78 1387.63,11811.02"/>
    </edge>
    <edge id=":1031441081_0" function="internal">
        <lane id=":1031441081_0_0" index="0" disallow="tram rail_urban rail rail_electric ship" speed="13.89" length="4.82" shape="2017.96,11691.71 2019.36,11692.23 2019.95,11692.94 2019.73,11693.84 2018.72,11694.93"/>
    </edge>
    <edge id=":1031441085_0" function="internal">
        <lane id=":1031441085_0_0" index="0" disallow="tram rail_urban rail rail_electric ship" speed="13.89" length="6.30" shape="1193.11,12037.58 1192.19,12036.16 1191.02,12035.31 1189.59,12035.02 1187.91,12035.29"/>
    </edge>
    <edge id=":1031441085_1" function="internal">
        <lane id=":1031441085_1_0" index="0" allow="delivery bicycle pedestrian" speed="5.56" length="10.04" shape="1193.11,12037.58 1188.89,12028.47"/>
    </edge>
    <edge id=":1031441085_2" function="internal">
        <lane id=":1031441085_2_0" index="0" allow="delivery bicycle pedestrian" speed="5.56" length="2.41" shape="1193.11,12037.58 1193.33,12036.11 1193.91,12035.39"/>
    </edge>
    <edge id=":1031441085_10" function="internal">
        <lane id=":1031441085_10_0" index="0" speed="5.56" length="2.41" shape="1193.91,12035.39 1194.83,12035.41 1196.10,12036.19"/>
    </edge>
    <edge id=":1031441085_3" function="internal">
        <lane id=":1031441085_3_0" index="0" allow="delivery bicycle pedestrian" speed="13.89" length="5.16" shape="1197.86,12032.17 1196.56,12032.80 1195.84,12033.68 1195.68,12034.81 1196.10,12036.19"/>
    </edge>
    <edge id=":1031441085_4" function="internal">
        <lane id=":1031441085_4_0" index="0" disallow="tram rail_urban rail rail_electric ship" speed="22.22" length="10.40" shape="1197.86,12032.17 1187.91,12035.29"/>
        <lane id=":1031441085_4_1" index="1" disallow="tram rail_urban rail rail_electric ship" speed="22.22" length="10.40" shape="1196.85,12029.03 1186.94,12032.13"/>
    </edge>
    <edge id=":1031441085_6" function="internal">
        <lane id=":1031441085_6_0" index="0" allow="delivery bicycle pedestrian" speed="13.89" length="8.58" shape="1196.85,12029.03 1193.83,12029.80 1191.50,12029.96 1189.85,12029.52 1188.89,12028.47"/>
    </edge>
    <edge id=":1031441085_7" function="internal">
        <lane id=":1031441085_7_0" index="0" allow="delivery bicycle pedestrian" speed="5.56" length="10.02" shape="1191.89,12027.10 1196.10,12036.19"/>
    </edge>
    <edge id=":1031441085_8" function="internal">
        <lane id=":1031441085_8_0" index="0" disallow="tram rail_urban rail rail_electric ship" speed="13.89" length="3.01" shape="1191.89,12027.10 1192.11,12028.57 1191.36,12029.90"/>
    </edge>
    <edge id=":1031441085_9" function="internal">
        <lane id=":1031441085_9_0" index="0" allow="delivery bicycle pedestrian" speed="5.56" length="2.41" shape="1191.89,12027.10 1191.66,12028.56 1191.08,12029.28"/>
    </edge>
    <edge id=":1031441085_11" function="internal">
        <lane id=":1031441085_11_0" index="0" speed="13.89" length="4.99" shape="1191.36,12029.90 1189.64,12031.09 1186.94,12032.13"/>
    </edge>
    <edge id=":1031441085_12" function="internal">
        <lane id=":1031441085_12_0" index="0" speed="5.56" length="2.41" shape="1191.08,12029.28 1190.16,12029.25 1188.89,12028.47"/>
    </edge>
    <edge id=":1031441098_0" function="internal">
        <lane id=":1031441098_0_0" index="0" disallow="tram rail_urban rail rail_electric ship" speed="13.89" length="6.06" shape="1442.51,11674.13 1441.63,11672.77 1440.50,11671.94 1439.13,11671.64 1437.51,11671.87"/>
    </edge>
    <edge id=":1031441098_1" function="internal">
        <lane id=":1031441098_1_0" index="0" disallow="tram rail_urban rail rail_electric ship" speed="13.89" length="10.14" shape="1442.51,11674.13 1438.58,11664.78"/>
    </edge>
    <edge id=":1031441098_2" function="internal">
        <lane id=":1031441098_2_0" index="0" disallow="tram rail_urban rail rail_electric ship" speed="13.89" length="5.58" shape="1442.51,11674.13 1441.66,11671.30 1441.95,11668.93 1442.09,11668.74"/>
    </edge>
    <edge id=":1031441098_3" function="internal">
        <lane id=":1031441098_3_0" index="0" disallow="tram rail_urban rail rail_electric ship" speed="13.89" length="2.53" shape="1442.51,11674.13 1442.74,11672.66 1443.31,11671.94 1443.43,11671.94"/>
    </edge>
    <edge id=":1031441098_16" function="internal">
        <lane id=":1031441098_16_0" index="0" speed="13.89" length="5.11" shape="1442.09,11668.74 1443.39,11667.03 1445.98,11665.59"/>
    </edge>
    <edge id=":1031441098_17" function="internal">
        <lane id=":1031441098_17_0" index="0" speed="13.89" length="2.29" shape="1443.43,11671.94 1444.23,11671.96 1445.50,11672.74"/>
    </edge>
    <edge id=":1031441098_4" function="internal">
        <lane id=":1031441098_4_0" index="0" disallow="tram rail_urban rail rail_electric ship" speed="13.89" length="5.09" shape="1447.15,11668.67 1445.92,11669.36 1445.24,11670.26 1445.10,11671.39 1445.50,11672.74"/>
    </edge>
    <edge id=":1031441098_5" function="internal">
        <lane id=":1031441098_5_0" index="0" disallow="tram rail_urban rail rail_electric ship" speed="13.89" length="10.17" shape="1447.15,11668.67 1444.35,11669.73 1442.38,11670.43 1440.39,11671.05 1437.51,11671.87"/>
    </edge>
    <edge id=":1031441098_6" function="internal">
        <lane id=":1031441098_6_0" index="0" disallow="tram rail_urban rail rail_electric ship" speed="13.89" length="10.74" shape="1447.15,11668.67 1444.29,11669.32 1441.90,11668.88 1440.00,11667.37 1438.58,11664.78"/>
    </edge>
    <edge id=":1031441098_7" function="internal">
        <lane id=":1031441098_7_0" index="0" disallow="tram rail_urban rail rail_electric ship" speed="13.89" length="4.82" shape="1447.15,11668.67 1445.70,11668.34 1445.02,11667.72 1445.11,11666.80 1445.98,11665.59"/>
    </edge>
    <edge id=":1031441098_8" function="internal">
        <lane id=":1031441098_8_0" index="0" disallow="tram rail_urban rail rail_electric ship" speed="13.89" length="5.40" shape="1441.67,11663.62 1442.39,11664.93 1443.34,11665.69 1444.54,11665.91 1445.98,11665.59"/>
    </edge>
    <edge id=":1031441098_9" function="internal">
        <lane id=":1031441098_9_0" index="0" disallow="tram rail_urban rail rail_electric ship" speed="13.89" length="9.89" shape="1441.67,11663.62 1445.50,11672.74"/>
    </edge>
    <edge id=":1031441098_10" function="internal">
        <lane id=":1031441098_10_0" index="0" disallow="tram rail_urban rail rail_electric ship" speed="13.89" length="5.04" shape="1441.67,11663.62 1442.31,11666.53 1441.90,11668.55"/>
    </edge>
    <edge id=":1031441098_11" function="internal">
        <lane id=":1031441098_11_0" index="0" disallow="tram rail_urban rail rail_electric ship" speed="13.89" length="2.41" shape="1441.67,11663.62 1441.34,11665.07 1440.71,11665.74"/>
    </edge>
    <edge id=":1031441098_18" function="internal">
        <lane id=":1031441098_18_0" index="0" speed="13.89" length="5.71" shape="1441.90,11668.55 1441.83,11668.88 1440.23,11670.66 1437.51,11671.87"/>
    </edge>
    <edge id=":1031441098_19" function="internal">
        <lane id=":1031441098_19_0" index="0" speed="13.89" length="2.41" shape="1440.71,11665.74 1439.79,11665.65 1438.58,11664.78"/>
    </edge>
    <edge id=":1031441098_12" function="internal">
        <lane id=":1031441098_12_0" index="0" disallow="tram rail_urban rail rail_electric ship" speed="13.89" length="5.10" shape="1436.61,11668.70 1437.90,11668.12 1438.66,11667.28 1438.89,11666.16 1438.58,11664.78"/>
    </edge>
    <edge id=":1031441098_13" function="internal">
        <lane id=":1031441098_13_0" index="0" disallow="tram rail_urban rail rail_electric ship" speed="13.89" length="9.88" shape="1436.61,11668.70 1439.43,11667.89 1441.34,11667.30 1443.23,11666.63 1445.98,11665.59"/>
    </edge>
    <edge id=":1031441098_14" function="internal">
        <lane id=":1031441098_14_0" index="0" disallow="tram rail_urban rail rail_electric ship" speed="13.89" length="10.79" shape="1436.61,11668.70 1439.49,11668.29 1441.93,11668.83 1443.93,11670.31 1445.50,11672.74"/>
    </edge>
    <edge id=":1031441098_15" function="internal">
        <lane id=":1031441098_15_0" index="0" disallow="tram rail_urban rail rail_electric ship" speed="13.89" length="4.82" shape="1436.61,11668.70 1438.02,11669.15 1438.65,11669.83 1438.47,11670.74 1437.51,11671.87"/>
    </edge>
    <edge id=":1031441102_0" function="internal">
        <lane id=":1031441102_0_0" index="0" disallow="tram rail_urban rail rail_electric ship" speed="13.89" length="4.99" shape="1288.41,11649.35 1287.85,11648.11 1287.02,11647.34 1285.93,11647.04 1284.58,11647.23"/>
    </edge>
    <edge id=":1031441102_1" function="internal">
        <lane id=":1031441102_1_0" index="0" disallow="tram rail_urban rail rail_electric ship" speed="13.89" length="10.28" shape="1288.41,11649.35 1288.02,11646.56 1288.60,11644.31 1290.17,11642.59 1292.72,11641.41"/>
    </edge>
    <edge id=":1031441102_2" function="internal">