<?xml version="1.0" encoding="UTF-8"?>

<!-- generated on Wed Jan 31 20:43:40 2018 by SUMO duarouter Version 0.30.0
<?xml version="1.0" encoding="UTF-8"?>

<configuration xmlns:xsi="http://www.w3.org/2001/XMLSchema-instance" xsi:noNamespaceSchemaLocation="http://sumo.dlr.de/xsd/duarouterConfiguration.xsd">

    <input>
        <net-file value="kaoshiung.net.xml"/>
        <additional-files value="vtype.add.xml"/>
        <trip-files value="trips.trips.xml"/>
    </input>

    <output>
        <output-file value="kaoshiung500first.rou.xml"/>
    </output>

    <processing>
        <ignore-errors value="true"/>
    </processing>

    <time>
        <begin value="0"/>
        <end value="500.0"/>
    </time>

    <report>
        <no-warnings value="true"/>
        <no-step-log value="true"/>
    </report>

</configuration>
-->

<routes>
    <vType id="passenger" maxSpeed="50.00"/>
    <vehicle id="0" type="passenger" depart="0.00" departLane="best">
        <route edges="25192832 418251597 23683304#0 23683304#1 23683304#2 23683304#3 330465829#0 330465829#1 330465829#2 385202255#1 385202255#2 385202255#3 385202255#4 385202255#5 385202255#6 385202255#7 -385202255#7"/>
    </vehicle>
    <vehicle id="1" type="passenger" depart="0.97" departLane="best">
        <route edges="232501700#1 232501700#2 -93475347#0 23582546#6 23582546#7 -272200694#8 -272200694#7 -272200694#6 -296215789#4 -296215789#3 -296215789#2"/>
    </vehicle>
    <vehicle id="2" type="passenger" depart="1.94" departLane="best">
        <route edges="-184383558#3 184383558#3 184383558#4 184383558#5 184383558#6 184383558#7 -296980003#2 -296980003#1 23582546#0 23582546#1 23582546#2"/>
    </vehicle>
    <vehicle id="3" type="passenger" depart="2.91" departLane="best">
        <route edges="-92041148 -296980007#0 -330465828#8 -330465828#7 -330465828#6 -330465828#5 -330465828#4 -330465828#3 -330465828#2 -330465828#1 -330465828#0 -23683303 257245112#3 257245112#4 257245112#5 257245112#6 257245112#7 25192832 -272200697#3 -272200697#2 94059895#1 94059895#2 94059895#3"/>
    </vehicle>
    <vehicle id="4" type="passenger" depart="3.88" departLane="best">
        <route edges="92071655#2 92071655#3 94059895#2 94059895#3 94059895#4 232496368#8 232496368#9 232496368#10 -296980003#2 -296980003#1 -296980003#0 -385202258#1 -385202258#0 -23582544#7 -23582544#6 -23582544#5 -23582544#4 -23582544#3 -23582544#2 -23582544#1 184383587#3 184383587#4"/>
    </vehicle>
    <vehicle id="5" type="passenger" depart="4.85" departLane="best">
        <route edges="92071606#4 23683304#1 23683304#2 23683304#3 330465828#0 330465828#1 330465828#2 330465828#3 330465828#4 330465828#5 330465828#6 330465828#7 330465828#8 296980007#0 296980007#1 184383636#0 184383636#1 385202256#0 385202256#1 386281939#0 386281939#1 35164004#3"/>
    </vehicle>
    <vehicle id="6" type="passenger" depart="5.82" departLane="best">
        <route edges="184383586 255537694 255537686#0 255537686#1 255537686#2 255537686#3 255537686#4 -25568481#4 -25568481#3 -25568481#2 -25568481#1"/>
    </vehicle>
    <vehicle id="7" type="passenger" depart="6.79" departLane="best">
        <route edges="88867322#3 -88867322#3 385202255#4 385202255#5 385202255#6 385202255#7 385202255#8 385202255#9 385202255#10 386281940#0 386281940#1 257245119#0 257245119#1 257245119#2 418972773#0 42680532#0 42680532#1"/>
    </vehicle>
    <vehicle id="8" type="passenger" depart="7.76" departLane="best">
        <route edges="88867327#0 88867327#1 401959566#0 401959566#1 -401959564#3 385202255#10 -184383636#1 -184383636#0 -330465830#1 -330465830#0 -401954570 -184383639#2 -184383639#1 -184383639#0 -296980003#2 -296980003#1 -296980003#0 -385202258#1 51005979#2"/>
    </vehicle>
    <vehicle id="9" type="passenger" depart="8.73" departLane="best">
        <route edges="51005978#0 -51005978#0 -184383639#0 -232496368#10"/>
    </vehicle>
    <vehicle id="10" type="passenger" depart="9.70" departLane="best">
        <route edges="330465830#1 -330465830#1 -330465830#0 -401954570 383026340#1 383026340#2 383026340#3 383026340#4 383026340#5 255537694 184383588#0 35163999"/>
    </vehicle>
    <vehicle id="11" type="passenger" depart="10.67" departLane="best">
        <route edges="-46142799#5 -46142799#4 35164004#4 -257245119#0 -386281940#1 -386281940#0 -184383636#1 -184383636#0 -330465830#1 -330465830#0 -401954570 -184383639#2 -184383639#1 -184383639#0 -232496368#10"/>
    </vehicle>
    <vehicle id="12" type="passenger" depart="11.64" departLane="best">
        <route edges="254607164#2 296980001#0 296980001#1 296980001#2 296980001#3 296980001#4 254607165#0 23582544#0 184383587#3"/>
    </vehicle>
    <vehicle id="13" type="passenger" depart="12.61" departLane="best">
        <route edges="184383576#7 -184383576#7 -184383576#6 -184383576#5 -184383576#4 35164004#2"/>
    </vehicle>
    <vehicle id="14" type="passenger" depart="13.58" departLane="best">
        <route edges="184383639#1 184383639#2 401954570 330465827#0 330465827#1 330465827#2 330465827#3 23506825 25192832"/>
    </vehicle>
    <vehicle id="15" type="passenger" depart="14.55" departLane="best">
        <route edges="232496355#10 232496355#11 257245112#2 257245112#3 257245112#4 257245112#5 257245112#6 257245112#7 383026348#0 383026348#1 -232496355#3"/>
    </vehicle>
    <vehicle id="16" type="passenger" depart="15.52" departLane="best">
        <route edges="-401959564#3 385202255#10 -184383636#1 -184383636#0 -330465830#1 -330465830#0 -401954570 -184383639#2 -184383639#1 -184383639#0 -296980003#2 -296980003#1 23582546#0 23582546#1 23582546#2 23582546#3 23582546#4 23582546#5 23582546#6 23582546#7 -23582546#7"/>
    </vehicle>
    <vehicle id="17" type="passenger" depart="16.49" departLane="best">
        <route edges="42680532#0 -42680532#0 418972773#1 418972774#0 418972774#1 418972774#2 25823393#0 25823393#1 25823393#2 25823393#3 184383558#0 184383558#1 184383558#2 184383558#3 184383558#4 184383558#5 184383558#6 51005979#1"/>
    </vehicle>
    <vehicle id="18" type="passenger" depart="17.46" departLane="best">
        <route edges="-92071606#3 92071606#3 257245112#6 257245112#7 25192832 418251596 383026340#0 -184383639#2 -184383639#1 -184383639#0 -296980003#2 -296980003#1 -296980003#0 -385202258#1 -385202258#0 385202258#0"/>
    </vehicle>
    <vehicle id="19" type="passenger" depart="18.43" departLane="best">
        <route edges="296980001#0 -296980001#0 -254607164#2 -254607164#1 -254607164#0 254607168 296980003#0 296980003#1 296980003#2 184383639#0 184383639#1 184383639#2 401954570 330465827#0 330465827#1 330465827#2 330465827#3 23506825 383026348#0 383026348#1 -232496355#3"/>
    </vehicle>
    <vehicle id="20" type="passenger" depart="19.40" departLane="best">
        <route edges="385202255#3 385202255#4 385202255#5 385202255#6 385202255#7 385202255#8 385202255#9 385202255#10 -184383636#1 -184383636#0 -330465830#1 -330465830#0 -401954570 383026340#1 -25568481#3 -25568481#2 51005978#2 -296213172#3"/>
    </vehicle>
    <vehicle id="21" type="passenger" depart="20.37" departLane="best">
        <route edges="-23978594#3 -23978594#2"/>
    </vehicle>
    <vehicle id="22" type="passenger" depart="21.34" departLane="best">
        <route edges="-88867310#3 -88867310#2 -88867310#1 -88867310#0 -401959567#1 -401959567#0 -403863073 184383636#1 385202256#0 385202256#1 386281939#0 386281939#1 386281939#2 386281939#3"/>
    </vehicle>
    <vehicle id="23" type="passenger" depart="22.31" departLane="best">
        <route edges="-184383576#0 -330465830#1 -330465830#0 -401954570 -184383639#2 -184383639#1 -184383639#0 -296980003#2 -296980003#1 23582546#0 23582546#1 23582546#2 23582546#3 23582546#4 23582546#5 23582546#6 23582546#7 -272200694#8 -272200694#7"/>
    </vehicle>
    <vehicle id="24" type="passenger" depart="23.28" departLane="best">
        <route edges="-386281939#0 -280728219#2 -184383576#1 184383576#1"/>
    </vehicle>
    <vehicle id="25" type="passenger" depart="24.25" departLane="best">
        <route edges="232496355#6 232496355#7 232496355#8 232496355#9 232496355#10 232496355#11 232496355#12 330465829#2 385202255#1 385202255#2 385202255#3 385202255#4 385202255#5 385202255#6 385202255#7 385202255#8 385202255#9 385202255#10 386281940#0 386281940#1 257245119#0 257245119#1 257245119#2"/>
    </vehicle>
    <vehicle id="26" type="passenger" depart="25.22" departLane="best">
        <route edges="-184383636#0 -330465830#1 -330465830#0 -401954570 -184383639#2"/>
    </vehicle>
    <vehicle id="27" type="passenger" depart="26.19" departLane="best">
        <route edges="35983484#1 520932346#0 -272200697#2 -272200697#1 -272200697#0 272200694#0 272200694#1 272200694#2 272200694#3 272200694#4 272200694#5 -296215789#4 -296215789#3 -296215789#2 296215789#2"/>
    </vehicle>
    <vehicle id="28" type="passenger" depart="27.16" departLane="best">
        <route edges="254607168 296980003#0 296980003#1 296980003#2 184383639#0 184383639#1 184383639#2 401954570 330465830#0 330465830#1 184383576#0 184383576#1 184383576#2 184383576#3 184383576#4 88867300#2"/>
    </vehicle>
    <vehicle id="29" type="passenger" depart="28.13" departLane="best">
        <route edges="385202259#1 385202258#0 385202258#1 296980003#0 296980003#1 296980003#2 184383639#0 184383639#1 184383639#2 401954570 330465827#0 330465827#1 330465827#2 330465827#3 23506825 383026348#0 383026348#1 232496355#4 232496355#5 -232496355#5"/>
    </vehicle>
    <vehicle id="30" type="passenger" depart="29.10" departLane="best">
        <route edges="88867310#3 -88867310#3 -88867310#2 -88867310#1 -88867310#0 -401959567#1 -401959567#0 -403863073 -184383636#0 -330465830#1 -330465830#0 -401954570 383026340#1 383026340#2 383026340#3 -296980004#4"/>
    </vehicle>
    <vehicle id="31" type="passenger" depart="30.07" departLane="best">
        <route edges="-88867310#2 -88867322#1"/>
    </vehicle>
    <vehicle id="32" type="passenger" depart="31.04" departLane="best">
        <route edges="71928163#0 -386281939#0 -385202256#1 -385202256#0 -184383636#1 -184383636#0 -330465830#1 -330465830#0 -401954570 -184383639#2 -184383639#1 -184383639#0 -296980003#2 -296980003#1 -296980003#0 -254607168 254607164#0 254607164#1 254607164#2"/>
    </vehicle>
    <vehicle id="33" type="passenger" depart="32.01" departLane="best">
        <route edges="88867315#1 -330465828#3 -330465828#2 -330465828#1 -330465828#0 -23683303"/>
    </vehicle>
    <vehicle id="34" type="passenger" depart="32.98" departLane="best">
        <route edges="-184383558#4 296980004#3 -51005978#3"/>
    </vehicle>
    <vehicle id="35" type="passenger" depart="33.95" departLane="best">
        <route edges="-296980007#1 -296980007#0 -330465828#8 -330465828#7 -330465828#6 -330465828#5 -330465828#4 -330465828#3 -330465828#2 -330465828#1 -330465828#0 -23683303 257245112#3 257245112#4 257245112#5 257245112#6 257245112#7 383026348#0 383026348#1 232496355#4 232496355#5"/>
    </vehicle>
    <vehicle id="36" type="passenger" depart="34.92" departLane="best">
        <route edges="-88867314#1 88867314#1 88867314#2 -385202255#2 -385202255#1"/>
    </vehicle>
    <vehicle id="37" type="passenger" depart="35.89" departLane="best">
        <route edges="-92041049#5 -92041049#4 -92041049#3 -92041049#2 -92041049#1 -92041049#0 330465827#3 23506825 25192832 -272200697#3 -272200697#2 -272200697#1 -272200697#0 272200694#0 272200694#1 272200694#2 272200694#3 272200694#4 272200694#5 272200694#6 272200694#7 272200694#8 23582546#8 -23582546#8"/>
    </vehicle>
    <vehicle id="38" type="passenger" depart="36.86" departLane="best">
        <route edges="296980004#2 184383558#4 184383558#5 184383558#6 184383558#7 -232496368#10 -232496368#9 -232496368#8 -232496368#7 -232496368#6 -232496368#5 232496368#5"/>
    </vehicle>
    <vehicle id="39" type="passenger" depart="37.83" departLane="best">
        <route edges="280728219#0 -88867313#1 -88867313#0 -330465830#0 330465830#0"/>
    </vehicle>
    <vehicle id="40" type="passenger" depart="38.80" departLane="best">
        <route edges="25568481#0 184383558#6 184383558#7 -232496368#10 -232496368#9 -232496368#8 -232496368#7 -232496368#6 -232496368#5 -232496368#4 -232496368#3 -232496368#2 -232496368#1 -232496368#0 -296215789#5 -272200694#5 -272200694#4 -272200694#3 -272200694#2 -272200694#1 92071655#1"/>
    </vehicle>
    <vehicle id="41" type="passenger" depart="39.77" departLane="best">
        <route edges="-386281939#3 386281939#3 386281939#4 418972774#0 418972774#1 418972774#2 25823393#0 25823393#1 25823393#2 25823393#3 184383587#0 184383587#1 184383587#2 -23582544#0 254607165#1"/>
    </vehicle>
    <vehicle id="42" type="passenger" depart="40.74" departLane="best">
        <route edges="-88867327#0 88867327#0 88867327#1 401959566#0 401959566#1 -401959564#3 -401959564#2 -401959564#1 -401959564#0 -221608654#4 -88867317#2"/>
    </vehicle>
    <vehicle id="43" type="passenger" depart="41.71" departLane="best">
        <route edges="-88867315#0 88867315#0 88867315#1 330465828#4 330465828#5 330465828#6 330465828#7 330465828#8 296980007#0 296980007#1 -330465830#1 -330465830#0 -401954570 383026340#1 -25568481#3"/>
    </vehicle>
    <vehicle id="44" type="passenger" depart="42.68" departLane="best">
        <route edges="-296980004#2 23582544#6 23582544#7 385202258#0 385202258#1 296980003#0 296980003#1 296980003#2 184383639#0 184383639#1 184383639#2 401954570 -401954570"/>
    </vehicle>
    <vehicle id="45" type="passenger" depart="43.65" departLane="best">
        <route edges="23683304#1 23683304#2 23683304#3 330465828#0 330465828#1 330465828#2 330465828#3 330465828#4 330465828#5 330465828#6 330465828#7 -330465828#7"/>
    </vehicle>
    <vehicle id="46" type="passenger" depart="44.62" departLane="best">
        <route edges="-330465828#2 -330465828#1 -330465828#0 -23683303 257245112#3 257245112#4 257245112#5 257245112#6 257245112#7 25192832 -272200697#3 -272200697#2 -272200697#1 -272200697#0 272200694#0 272200694#1 272200694#2 272200694#3 272200694#4 272200694#5 -296215789#4 296215789#4"/>
    </vehicle>
    <vehicle id="47" type="passenger" depart="45.59" departLane="best">
        <route edges="272200694#9 -272200694#9 -272200694#8 -272200694#7 -272200694#6 -272200694#5 -272200694#4 -272200694#3 -272200694#2 -272200694#1 92071655#1 92071655#2 -232496362#1 -232496362#0 92071741#5 92071741#6"/>
    </vehicle>
    <vehicle id="48" type="passenger" depart="46.56" departLane="best">
        <route edges="272200694#7 272200694#8 -23582546#7 -23582546#6 -23582546#5 -23582546#4 -23582546#3 -23582546#2 -23582546#1 -23582546#0 296980003#1 296980003#2 184383639#0 184383639#1 184383639#2 383026340#1 383026340#2 383026340#3 383026340#4 383026340#5 255537687#0"/>
    </vehicle>
    <vehicle id="49" type="passenger" depart="47.53" departLane="best">
        <route edges="46142799#3 35164004#4 -257245119#0 -386281940#1 -386281940#0 -184383636#1 -184383636#0 -330465830#1 -330465830#0 -401954570 -184383639#2 -184383639#1 -184383639#0 -296980003#2 -296980003#1 23582546#0 23582546#1 23582546#2 23582546#3 23582546#4 23582546#5 23582546#6 23582546#7 23582546#8 23582546#9"/>
    </vehicle>
    <vehicle id="50" type="passenger" depart="48.50" departLane="best">
        <route edges="-401959564#2 -401959567#0 -403863073 -184383636#0 -330465830#1 -330465830#0 -401954570 -184383639#2 -184383639#1 -184383639#0 -296980003#2 -296980003#1 -296980003#0 -254607168 -270268067#2 -270268067#1 270268067#1"/>
    </vehicle>
    <vehicle id="51" type="passenger" depart="49.47" departLane="best">
        <route edges="-232501700#2 -232501700#1 -232501700#0 -385202257 296980003#0 296980003#1 296980003#2 184383639#0 184383639#1 184383639#2 401954570 330465830#0 330465830#1 -296980007#1 -296980007#0 -330465828#8 -330465828#7 -330465828#6 -330465828#5 -330465828#4 -88867315#1"/>
    </vehicle>
    <vehicle id="52" type="passenger" depart="50.44" departLane="best">
        <route edges="25568481#2 -25568481#2 -51005978#1 -51005978#0 184383639#1"/>
    </vehicle>
    <vehicle id="53" type="passenger" depart="51.41" departLane="best">
        <route edges="-88867300#3 -88867300#2 -184383576#4 -184383576#3 -184383576#2 -184383576#1 -184383576#0 -296980007#1 -296980007#0 -330465828#8 -330465828#7 -330465828#6 -330465828#5 -330465828#4 -330465828#3 -330465828#2 -330465828#1 -330465828#0 -23683303 257245112#3 257245112#4 257245112#5 257245112#6 257245112#7 383026348#0 -92071606#1"/>
    </vehicle>
    <vehicle id="54" type="passenger" depart="52.38" departLane="best">
        <route edges="232496355#6 232496355#7 232496355#8 232496355#9 232496355#10 232496355#11 257245112#2 23683303 330465828#0 330465828#1 330465828#2 330465828#3 -88867315#1 88867315#1"/>
    </vehicle>
    <vehicle id="55" type="passenger" depart="53.35" departLane="best">
        <route edges="385202258#0 385202258#1 296980003#0 296980003#1 296980003#2 -232496368#10 -93331250#1 -93331250#0 35983484#0 35983484#1 520932346#0 520932346#1 -520932346#1"/>
    </vehicle>
    <vehicle id="56" type="passenger" depart="54.32" departLane="best">
        <route edges="-88867327#1 88867327#1 401959566#0 401959566#1 -401959564#3 385202255#10 -184383636#1 -184383636#0 -330465830#1 -330465830#0 -401954570 383026340#1 383026340#2 383026340#3 383026340#4 25823393#1 25823393#2 25823393#3 184383587#0 184383587#1 184383587#2 -23582544#0"/>
    </vehicle>
    <vehicle id="57" type="passenger" depart="55.29" departLane="best">
        <route edges="92071655#0 272200694#1 272200694#2 272200694#3 272200694#4 272200694#5 272200694#6 272200694#7 272200694#8 272200694#9 270268067#0 270268067#1 270268067#2 -270268067#2"/>
    </vehicle>
    <vehicle id="58" type="passenger" depart="56.26" departLane="best">
        <route edges="184383587#1 184383587#2 -23582544#0 254607165#1 184383586 255537694 255537686#0 255537686#1 255537686#2 255537686#3 255537686#4 280728219#0 88867313#2"/>
    </vehicle>
    <vehicle id="59" type="passenger" depart="57.23" departLane="best">
        <route edges="184383558#2 184383558#3 184383558#4 184383558#5 184383558#6 184383558#7 -232496368#10 -232496368#9 -232496368#8 -232496368#7 -232496368#6 -232496368#5 -232496368#4 -232496368#3 -232496368#2 -232496368#1 -232496368#0 -296215789#5 -296215789#4 296215789#4"/>
    </vehicle>
    <vehicle id="60" type="passenger" depart="58.20" departLane="best">
        <route edges="23683303 330465829#0 -88867310#4 -88867310#3 -88867310#2 88867310#2"/>
    </vehicle>
    <vehicle id="61" type="passenger" depart="59.17" departLane="best">
        <route edges="-296980001#1 296980001#1 296980001#2 296980001#3 296980001#4 254607165#0 254607165#1 184383586 255537694 184383588#0 184383588#1 184383588#2 184383588#3 23978594#0 -23978594#0"/>
    </vehicle>
    <vehicle id="62" type="passenger" depart="60.14" departLane="best">
        <route edges="385202255#6 385202255#7 385202255#8 385202255#9 385202255#10 -184383636#1 -184383636#0 -330465830#1 -330465830#0 -401954570 -184383639#2 -184383639#1 -184383639#0 -296980003#2 -296980003#1 -296980003#0 -385202258#1 -385202258#0 -23582544#7 -23582544#6 -296980004#1"/>
    </vehicle>
    <vehicle id="63" type="passenger" depart="61.11" departLane="best">
        <route edges="-184383558#6 184383558#6 184383558#7 184383639#0 184383639#1 184383639#2 401954570 330465827#0 330465827#1 330465827#2 330465827#3 23506825 383026348#0 383026348#1 232496355#4"/>
    </vehicle>
    <vehicle id="64" type="passenger" depart="62.08" departLane="best">
        <route edges="-225874158 23582544#4 23582544#5 23582544#6 23582544#7 385202258#0 385202258#1 296980003#0 296980003#1 296980003#2 184383639#0 184383639#1 184383639#2 401954570 330465830#0 330465830#1 -296980007#1 -296980007#0 -330465828#8 -330465828#7 -330465828#6 -330465828#5 -330465828#4 -330465828#3 -330465828#2 -330465828#1 330465828#1"/>
    </vehicle>
    <vehicle id="65" type="passenger" depart="63.05" departLane="best">
        <route edges="-385202259#1 254607164#2 296980001#0 296980004#1 296980004#2 296980004#3 -51005978#3"/>
    </vehicle>
    <vehicle id="66" type="passenger" depart="64.02" departLane="best">
        <route edges="-51005978#1 -51005978#0 -184383639#0 -296980003#2 -296980003#1 -296980003#0 -385202258#1 -385202258#0 -23582544#7 -23582544#6 -23582544#5 -23582544#4 -23582544#3 -23582544#2 -23582544#1"/>
    </vehicle>
    <vehicle id="67" type="passenger" depart="64.99" departLane="best">
        <route edges="88867313#1 -88867313#1 -88867313#0 330465830#1 184383636#0 184383636#1 386281940#0 386281940#1 257245119#0 257245119#1"/>
    </vehicle>
    <vehicle id="68" type="passenger" depart="65.96" departLane="best">
        <route edges="23582544#6 -23582544#6 -23582544#5 -23582544#4 -23582544#3 -23582544#2 -23582544#1 -23582544#0 254607165#1 184383586 255537694 184383588#0 184383588#1 184383588#2 184383588#3 -418972770 -386281939#4 -386281939#3 -88867300#0 -46142799#4"/>
    </vehicle>
    <vehicle id="69" type="passenger" depart="66.93" departLane="best">
        <route edges="270585771#0 -42680532#0 418972773#1 418972774#0 418972774#1 418972774#2 255537686#1 255537686#2 255537686#3 255537686#4 255537686#5 330465827#0 330465827#1 330465827#2 330465827#3 23506825 25192832 -272200697#3 -272200697#2 -272200697#1 232496362#1 92071655#3"/>
    </vehicle>
    <vehicle id="70" type="passenger" depart="67.90" departLane="best">
        <route edges="52254946#2 232496362#0 272200697#1 272200697#2 272200697#3 418251597 23683304#0 23683304#1 23683304#2 23683304#3 330465829#0 330465829#1 330465829#2 385202255#1 385202255#2 385202255#3 385202255#4 385202255#5 385202255#6 385202255#7 385202255#8 -88867311 401959566#0 401959566#1 -401959564#3"/>
    </vehicle>
    <vehicle id="71" type="passenger" depart="68.87" departLane="best">
        <route edges="265614897#1 265614897#2 265614897#3 403863070#0 403863070#1 403863070#2 30074977 418251596 383026340#0 383026340#1 383026340#2 383026340#3 383026340#4 383026340#5 255537694 184383588#0"/>
    </vehicle>
    <vehicle id="72" type="passenger" depart="69.84" departLane="best">
        <route edges="25823393#1 25823393#2 25823393#3 -184383552 184383552"/>
    </vehicle>
    <vehicle id="73" type="passenger" depart="70.81" departLane="best">
        <route edges="-23582544#7 23582544#7 385202258#0 385202258#1 296980003#0 296980003#1 296980003#2 184383639#0 184383639#1 184383639#2 401954570 330465830#0 330465830#1 -296980007#1 -296980007#0 -221608654#4 -88867317#2"/>
    </vehicle>
    <vehicle id="74" type="passenger" depart="71.78" departLane="best">
        <route edges="312561040#0 312561040#1 -270268067#2 -270268067#1 -93475347#1 -93475347#0 23582546#6"/>
    </vehicle>
    <vehicle id="75" type="passenger" depart="72.75" departLane="best">
        <route edges="330465828#1 -330465828#1 -330465828#0 -23683303 257245112#3 257245112#4 257245112#5 257245112#6 257245112#7 25192832 -272200697#3 -272200697#2 -272200697#1 -272200697#0 272200694#0 272200694#1 272200694#2 272200694#3 272200694#4 272200694#5 -296215789#4 -296215789#3 -296215789#2 -296215789#1 296215789#1"/>
    </vehicle>
    <vehicle id="76" type="passenger" depart="73.72" departLane="best">
        <route edges="35983484#0 35983484#1 380327966#0 380327966#1 380327966#2 93331250#1 232496368#10 -184383558#7 -184383558#6 184383558#6"/>
    </vehicle>
    <vehicle id="77" type="passenger" depart="74.69" departLane="best">
        <route edges="25568481#1 25568481#2 25568481#3 25568481#4 255537686#5 330465827#0 330465827#1 330465827#2 92041049#0 92041049#1 92041049#2 24149482#0 -24149482#0"/>
    </vehicle>
    <vehicle id="78" type="passenger" depart="75.66" departLane="best">
        <route edges="51005979#0 184383558#7 -232496368#10 -232496368#9 -232496368#8 -94059895#4 -94059895#3 -94059895#2 -94059895#1 -272200697#1 -232496362#0"/>
    </vehicle>
    <vehicle id="79" type="passenger" depart="76.63" departLane="best">
        <route edges="-94059895#0 94059895#0 -272200697#1 -272200697#0 272200694#0 272200694#1"/>
    </vehicle>
    <vehicle id="81" type="passenger" depart="78.57" departLane="best">
        <route edges="23582546#2 -23582546#2 -23582546#1"/>
    </vehicle>
    <vehicle id="82" type="passenger" depart="79.54" departLane="best">
        <route edges="383026340#3 296980004#5 255537686#4 255537686#5 330465830#0 330465830#1 -296980007#1 -296980007#0 -221608654#4 -221608654#3 -221608654#2 -221608654#1"/>
    </vehicle>
    <vehicle id="83" type="passenger" depart="80.51" departLane="best">
        <route edges="-94059895#1 94059895#1 94059895#2 94059895#3 94059895#4 232496368#8 232496368#9 232496368#10 -296980003#2 -296980003#1 -296980003#0 -385202258#1 -51005979#1"/>
    </vehicle>
    <vehicle id="84" type="passenger" depart="81.48" departLane="best">
        <route edges="296980003#1 296980003#2 184383639#0 184383639#1 184383639#2 401954570 330465830#0 330465830#1 184383636#0 184383636#1 -385202255#10 -385202255#9 -385202255#8 -385202255#7 -385202255#6 -385202255#5 -385202255#4 -385202255#3 88867314#3 88867314#4"/>
    </vehicle>
    <vehicle id="85" type="passenger" depart="82.45" departLane="best">
        <route edges="88867327#0 88867327#1 401959566#0 401959566#1 -401959564#3 385202255#10 -184383636#1 -184383636#0 -330465830#1 -330465830#0 -401954570 -184383639#2 -184383639#1 -184383639#0 -184383558#7 -184383558#6 -184383558#5 -184383558#4 296980004#3"/>
    </vehicle>
    <vehicle id="86" type="passenger" depart="83.42" departLane="best">
        <route edges="-52254946#2 52254946#2 232496362#0 272200697#1 272200697#2 272200697#3 418251597 23683304#0 23683304#1 23683304#2 23683304#3 330465828#0 -330465828#0"/>
    </vehicle>
    <vehicle id="87" type="passenger" depart="84.39" departLane="best">
        <route edges="265614897#0 265614897#1 265614897#2 265614897#3 403863070#0 -232496355#2 -232496355#1 92071606#0"/>
    </vehicle>
    <vehicle id="88" type="passenger" depart="85.36" departLane="best">
        <route edges="-184383576#0 184383636#0 184383636#1 386281940#0 -386281940#0"/>
    </vehicle>
    <vehicle id="89" type="passenger" depart="86.33" departLane="best">
        <route edges="270268067#0 270268067#1 270268067#2 254607168 296980003#0 296980003#1 296980003#2 184383639#0 184383639#1 184383639#2 401954570 330465830#0 330465830#1 184383636#0 184383636#1 386281940#0"/>
    </vehicle>
    <vehicle id="90" type="passenger" depart="87.30" departLane="best">
        <route edges="-93475347#0 -23582546#5 -23582546#4 -23582546#3 -23582546#2 -23582546#1 -23582546#0 296980003#1 296980003#2 184383639#0 184383639#1 184383639#2 383026340#1 383026340#2 383026340#3 383026340#4 383026340#5 255537694 255537686#0 25823393#0"/>
    </vehicle>
    <vehicle id="91" type="passenger" depart="88.27" departLane="best">
        <route edges="92071741#4 232496362#0 272200697#1 272200697#2 272200697#3 418251597 23683304#0 23683304#1 23683304#2 23683304#3 330465828#0 330465828#1 330465828#2 330465828#3 330465828#4 330465828#5 330465828#6 330465828#7 330465828#8 296980007#0 -296980007#0"/>
    </vehicle>
    <vehicle id="92" type="passenger" depart="89.24" departLane="best">
        <route edges="330465827#1 330465827#2 92041049#0 92041049#1 92041049#2 24149482#0 24149482#1 88867315#0 88867315#1 330465828#4 330465828#5 330465828#6 330465828#7 330465828#8 296980007#0 92041058 -92041058"/>
    </vehicle>
    <vehicle id="93" type="passenger" depart="90.21" departLane="best">
        <route edges="-232496368#4 232496368#4 232496368#5 232496368#6 232496368#7 232496368#8 232496368#9 232496368#10 184383639#0 184383639#1 184383639#2 401954570 330465830#0 330465830#1 184383576#0 184383576#1 184383576#2 184383576#3 184383576#4 -88867300#1"/>
    </vehicle>
    <vehicle id="94" type="passenger" depart="91.18" departLane="best">
        <route edges="184383558#6 184383558#7 -232496368#10 -232496368#9 -232496368#8 -94059895#4 -94059895#3 -94059895#2 94059895#2"/>
    </vehicle>
    <vehicle id="95" type="passenger" depart="92.15" departLane="best">
        <route edges="296980001#0 296980001#1 296980001#2 296980001#3 296980001#4 254607165#0 254607165#1 184383586 255537694 184383588#0 184383588#1 184383588#2 184383588#3 -418972770 -386281939#4 -386281939#3 -88867300#0"/>
    </vehicle>
    <vehicle id="96" type="passenger" depart="93.12" departLane="best">
        <route edges="296980007#0 -296980007#0 -330465828#8 -330465828#7 -330465828#6 -330465828#5 -330465828#4 -330465828#3 -330465828#2 -330465828#1 -330465828#0 -23683303 257245112#3 257245112#4 257245112#5 -92071606#3 92071606#3"/>
    </vehicle>
    <vehicle id="97" type="passenger" depart="94.09" departLane="best">
        <route edges="25823393#3 184383587#0 184383587#1 184383587#2 184383587#3 -296980001#3 -296980001#2 -296980001#1 -296980004#0"/>
    </vehicle>
    <vehicle id="98" type="passenger" depart="95.06" departLane="best">
        <route edges="23582544#7 385202258#0 385202258#1 385202257 232501700#0 232501700#1 232501700#2 -93475347#0 23582546#6 23582546#7 -272200694#8 -272200694#7 -272200694#6"/>
    </vehicle>
    <vehicle id="99" type="passenger" depart="96.03" departLane="best">
        <route edges="-232496368#4 232496368#4 232496368#5 232496368#6 232496368#7 232496368#8 232496368#9 232496368#10 -296980003#2 -296980003#1 -296980003#0 -385202258#1 -385202258#0 -23582544#7"/>
    </vehicle>
    <vehicle id="100" type="passenger" depart="97.00" departLane="best">
        <route edges="272200697#1 272200697#2 272200697#3 418251596 383026340#0 383026340#1 -25568481#3 -25568481#2 51005978#2 -296213172#3"/>
    </vehicle>
    <vehicle id="101" type="passenger" depart="97.97" departLane="best">
        <route edges="-51005979#0 51005978#1 25568481#2 25568481#3 383026340#2 383026340#3 296980004#5 -296980004#5"/>
    </vehicle>
    <vehicle id="102" type="passenger" depart="98.94" departLane="best">